LTspice 24.0.12 for Windows
Circuit: * C:\Users\dhruv\OneDrive\Dhruv KJSCE FY\EEEE\EEEE IA-1.asc
Start Time: Sun Oct 27 21:42:31 2024
solver = Normal
Maximum thread count: 16
tnom = 27
temp = 27
method = modified trap
Direct Newton iteration for .op point succeeded.
Total elapsed time: 0.101 seconds.

